  8
Step 17
 Pd     -1.18058883     -1.32431857     -0.52190448
  N     -2.31306731     -0.00956001      0.35549681
  C     -1.64641122      1.03514767      0.72646425
  C     -0.18819427      1.16130484      0.47626475
  O      0.31881402     -0.06360509     -0.17359449
  H      0.36147467      1.32383498      1.41738328
  H      0.01748077      2.03011989     -0.17031600
  H     -2.19710785      1.83715628      1.23256587
