54

  C  -2.204440   0.171722  -1.773313 
  C  -1.162041   0.090514  -0.873251 
  C  -1.949489   0.106126  -3.158016 
  H  -3.230938   0.284120  -1.441700 
  C  -0.632772  -0.055906  -3.591773 
  H  -2.763845   0.162367  -3.861512 
  C   0.424165  -0.159819  -2.700497 
  H  -0.428529  -0.113213  -4.658145 
  C   0.232552  -0.076297  -1.279321 
  H   1.435644  -0.316317  -3.055409 
  O  -1.332373   0.112845   0.518001 
  C  -2.569928   0.677208   0.993252 
  H  -2.813175   1.595381   0.452514 
  H  -2.357254   0.880890   2.047976 
  H  -3.366739  -0.064453   0.888638 
  N   1.332373  -0.112845  -0.518001 
  C   1.488554  -0.247852   0.853678 
  C   2.252208   0.720041   1.578027 
  C   1.133592  -1.470514   1.526624 
  C   2.669838   0.421508   2.884365 
  C   1.545016  -1.699073   2.835855 
  C   2.318789  -0.762165   3.528305 
  H   1.272717  -2.628252   3.332317 
  H   2.643275  -0.959345   4.540468 
  H   3.289579   1.136791   3.424713 
  C   2.729296   2.069161   1.055733 
  C   2.270465   2.500302  -0.337934 
  H   2.574654   1.768876  -1.101861 
  H   2.681538   3.472063  -0.612767 
  H   1.177803   2.556511  -0.403025 
  C   2.327776   3.182556   2.052588 
  H   2.657125   4.162299   1.706220 
  H   2.753671   3.007642   3.043409 
  H   1.238549   3.210166   2.161947 
  H   3.850060   2.006141   1.026314 
  C  -0.607495  -3.314806   1.698908 
  C   0.381094  -2.563125   0.790029 
  H  -1.268750  -2.596449   2.196648 
  H  -0.091616  -3.891437   2.470187 
  H  -1.229378  -3.997891   1.115805 
  C   1.391084  -3.532643   0.151205 
  H  -0.230870  -2.104660  -0.030808 
  H   2.059936  -3.965929   0.898095 
  H   2.016800  -2.983605  -0.567175 
  H   0.890497  -4.341888  -0.382818 
 Zr   7.000000   0.000000   0.000000 
  C   8.604518  -1.327794  -0.037651 
  H   9.488335  -0.969084  -0.595128 
  H   8.240811  -2.275332  -0.493531 
  H   8.935319  -1.549619   1.002736 
  C   8.049580   1.795783  -0.111531 
  H   7.344383   2.620491   0.127063 
  H   8.468627   1.969951  -1.125866 
  H   8.900884   1.824726   0.598447 
54

  C  -2.259548   0.710544  -1.557505 
  C  -1.164945   0.369368  -0.797302 
  C  -3.434149   1.195044  -0.929501 
  H  -2.250666   0.611939  -2.636940 
  C  -3.463248   1.308263   0.452815 
  H  -4.283054   1.467975  -1.535713 
  C  -2.373528   0.928543   1.240458 
  H  -4.355846   1.693758   0.942211 
  C  -1.172849   0.419650   0.668503 
  H  -2.429097   1.010307   2.318721 
  O   0.053517  -0.060262  -1.327410 
  C   0.154382  -0.112301  -2.763945 
  H  -0.416251  -0.963986  -3.144857 
  H   1.228225  -0.261339  -2.914527 
  H  -0.176152   0.823608  -3.224678 
  N  -0.053517   0.060262   1.327410 
  C   0.087024  -0.270902   2.661924 
  C   1.199210   0.260688   3.403806 
  C  -0.709706  -1.293380   3.290058 
  C   1.478745  -0.260998   4.671853 
  C  -0.418189  -1.728829   4.581525 
  C   0.682437  -1.231650   5.280771 
  H  -1.050421  -2.482864   5.048747 
  H   0.919066  -1.600586   6.267310 
  H   2.349850   0.103641   5.217042 
  C   2.178995   1.329934   2.931014 
  C   1.908775   1.980962   1.574562 
  H   1.834614   1.216729   0.781048 
  H   2.697220   2.682254   1.300933 
  H   0.944320   2.502387   1.559713 
  C   2.303507   2.456476   3.988113 
  H   2.999928   3.233037   3.663644 
  H   2.652035   2.073524   4.950261 
  H   1.327761   2.923620   4.155094 
  H   3.175497   0.815987   2.857511 
  C  -3.189678  -1.694132   3.231410 
  C  -1.837897  -1.999676   2.564410 
  H  -3.321562  -0.604684   3.299251 
  H  -3.252381  -2.103797   4.240402 
  H  -4.021612  -2.086350   2.642687 
  C  -1.560872  -3.514372   2.484978 
  H  -1.902256  -1.639170   1.505305 
  H  -1.545736  -3.990412   3.468446 
  H  -0.580495  -3.677785   2.019371 
  H  -2.308835  -4.017711   1.870315 
 Zr   5.900000   0.000000   0.000000 
  C   7.504518  -1.327794  -0.037651 
  H   8.388335  -0.969084  -0.595128 
  H   7.140811  -2.275332  -0.493531 
  H   7.835319  -1.549619   1.002736 
  C   6.949580   1.795783  -0.111531 
  H   6.244383   2.620491   0.127063 
  H   7.368627   1.969951  -1.125866 
  H   7.800884   1.824726   0.598447 
54

  C  -2.235143   0.403253  -1.702261 
  C  -1.177836   0.213189  -0.836504 
  C  -2.063309   0.170172  -3.083023 
  H  -3.209191   0.726915  -1.351960 
  C  -0.815343  -0.238292  -3.548747 
  H  -2.891285   0.306152  -3.759231 
  C   0.257064  -0.437023  -2.688907 
  H  -0.673200  -0.419140  -4.611046 
  C   0.141533  -0.240034  -1.275102 
  H   1.219629  -0.761641  -3.066015 
  O  -1.253186   0.423766   0.545002 
  C  -2.431177   1.098489   1.026433 
  H  -2.585083   2.047153   0.505900 
  H  -2.184117   1.264413   2.079880 
  H  -3.304099   0.449405   0.918122 
  N   1.253186  -0.423766  -0.545002 
  C   1.379487  -0.644795   0.817477 
  C   2.295288   0.165157   1.568385 
  C   0.803832  -1.793929   1.460908 
  C   2.561349  -0.151292   2.900976 
  C   1.098245  -2.061558   2.796855 
  C   1.966357  -1.247526   3.529405 
  H   0.652156  -2.927735   3.282285 
  H   2.179123  -1.464352   4.565761 
  H   3.250617   0.468455   3.471975 
  C   3.023188   1.372382   1.000527 
  C   3.995864   0.976199  -0.121139 
  H   4.754742   0.278986   0.240056 
  H   4.481501   1.850944  -0.555424 
  H   3.442767   0.461615  -0.926563 
  C   2.048168   2.458619   0.524473 
  H   2.578392   3.343198   0.167995 
  H   1.357214   2.742651   1.322796 
  H   1.432812   2.073661  -0.304426 
  H   3.639803   1.822970   1.823972 
  C  -1.452567  -2.939469   1.363530 
  C  -0.075169  -2.768587   0.701113 
  H  -1.934101  -1.955295   1.454402 
  H  -1.375196  -3.374331   2.361579 
  H  -2.093821  -3.582434   0.755122 
  C   0.627345  -4.131345   0.548242 
  H  -0.262608  -2.384501  -0.335714 
  H   0.821521  -4.598376   1.515668 
  H   1.591533  -3.997656   0.042934 
  H   0.017882  -4.813960  -0.048918 
 Zr   7.900000   0.000000   0.000000 
  C   9.504518  -1.327794  -0.037651 
  H  10.388335  -0.969084  -0.595128 
  H   9.140811  -2.275332  -0.493531 
  H   9.835319  -1.549619   1.002736 
  C   8.949580   1.795783  -0.111531 
  H   8.244383   2.620491   0.127063 
  H   9.368627   1.969951  -1.125866 
  H   9.800884   1.824726   0.598447 
