54
1
  C  -2.259548   0.710544  -1.557505 
  C  -1.164945   0.369368  -0.797302 
  C  -3.434149   1.195044  -0.929501 
  H  -2.250666   0.611939  -2.636940 
  C  -3.463248   1.308263   0.452815 
  H  -4.283054   1.467975  -1.535713 
  C  -2.373528   0.928543   1.240458 
  H  -4.355846   1.693758   0.942211 
  C  -1.172849   0.419650   0.668503 
  H  -2.429097   1.010307   2.318721 
  O   0.053517  -0.060262  -1.327410 
  C   0.154382  -0.112301  -2.763945 
  H  -0.416251  -0.963986  -3.144857 
  H   1.228225  -0.261339  -2.914527 
  H  -0.176152   0.823608  -3.224678 
  N  -0.053517   0.060262   1.327410 
  C   0.087024  -0.270902   2.661924 
  C   1.199210   0.260688   3.403806 
  C  -0.709706  -1.293380   3.290058 
  C   1.478745  -0.260998   4.671853 
  C  -0.418189  -1.728829   4.581525 
  C   0.682437  -1.231650   5.280771 
  H  -1.050421  -2.482864   5.048747 
  H   0.919066  -1.600586   6.267310 
  H   2.349850   0.103641   5.217042 
  C   2.178995   1.329934   2.931014 
  C   1.908775   1.980962   1.574562 
  H   1.834614   1.216729   0.781048 
  H   2.697220   2.682254   1.300933 
  H   0.944320   2.502387   1.559713 
  C   2.303507   2.456476   3.988113 
  H   2.999928   3.233037   3.663644 
  H   2.652035   2.073524   4.950261 
  H   1.327761   2.923620   4.155094 
  H   3.175497   0.815987   2.857511 
  C  -3.189678  -1.694132   3.231410 
  C  -1.837897  -1.999676   2.564410 
  H  -3.321562  -0.604684   3.299251 
  H  -3.252381  -2.103797   4.240402 
  H  -4.021612  -2.086350   2.642687 
  C  -1.560872  -3.514372   2.484978 
  H  -1.902256  -1.639170   1.505305 
  H  -1.545736  -3.990412   3.468446 
  H  -0.580495  -3.677785   2.019371 
  H  -2.308835  -4.017711   1.870315 
 Zr   5.900000   0.000000   0.000000 
  C   7.504518  -1.327794  -0.037651 
  H   8.388335  -0.969084  -0.595128 
  H   7.140811  -2.275332  -0.493531 
  H   7.835319  -1.549619   1.002736 
  C   6.949580   1.795783  -0.111531 
  H   6.244383   2.620491   0.127063 
  H   7.368627   1.969951  -1.125866 
  H   7.800884   1.824726   0.598447 
