15
-1
  N   0.390317   1.582624  -0.865804 
  C   0.437162   0.605084  -0.288177 
  C  -0.674744  -0.462725   0.169942 
  O  -0.390317  -1.582624   0.865804 
  H   1.462345   0.050050   0.188585 
  H  -1.230984  -0.615480  -0.858602 
  H  -1.456929   0.270903   0.660357 
 Pd   5.100000   0.000000   0.000000 
  N   6.485696   0.052049  -1.363110 
  C   7.650245   0.309322  -0.862014 
  C   7.844549   0.522972   0.594527 
  O   6.545521   0.447171   1.292066 
  H   8.302787   1.505458   0.792001 
  H   8.526257  -0.238553   1.007520 
  H   8.501219   0.360441  -1.551834 
