15
-1
  N   0.003674   0.138794  -1.570347 
  C  -0.895376  -0.082405  -0.879989 
  C  -1.039337  -0.248215   0.713186 
  O  -0.003674  -0.138794   1.570347 
  H  -2.095543  -0.267683  -1.214100 
  H  -1.639807  -1.262537   0.748195 
  H  -1.950355   0.476434   0.901497 
 Pd   3.800000   0.000000   0.000000 
  N   5.185696   0.052049  -1.363110 
  C   6.350245   0.309322  -0.862014 
  C   6.544549   0.522972   0.594527 
  O   5.245521   0.447171   1.292066 
  H   7.002787   1.505458   0.792001 
  H   7.226257  -0.238553   1.007520 
  H   7.201219   0.360441  -1.551834 
