 45
 
  C -0.072400 -4.356200 -0.808700
  C 1.059300 -3.608300 -0.557300
  C -0.765100 -4.202600 -2.026600
  H -0.449700 -5.071900 -0.086400
  C -0.275600 -3.296000 -2.968200
  H -1.645100 -4.791500 -2.226700
  C 0.871600 -2.551500 -2.740300
  H -0.801000 -3.176000 -3.912500
  C 1.608000 -2.645000 -1.510500
  H 1.253400 -1.875600 -3.495900
  O 1.824600 -3.724700 0.611400
  C 1.158700 -4.312600 1.745800
  H 0.148400 -3.910600 1.856700
  H 1.798300 -4.018800 2.584700
  H 1.139400 -5.399600 1.627600
  N 2.655500 -1.824400 -1.369400
  C 3.667300 -1.791100 -0.421100
  C 3.918900 -0.584500 0.303800
  C 4.642300 -2.847400 -0.335300
  C 5.119800 -0.455400 1.018800
  C 5.799800 -2.678200 0.417800
  C 6.055300 -1.483700 1.098900
  H 6.530200 -3.482900 0.472300
  H 6.965700 -1.361100 1.668800
  H 5.336700 0.478800 1.536400
  C 3.022800 0.646600 0.347700
  C 1.667200 0.570900 -0.356100
  H 1.785300 0.335400 -1.424600
  H 1.118600 1.509400 -0.271900
  H 1.044000 -0.231600 0.054900
  C 2.770800 1.052300 1.819600
  H 2.131900 1.933200 1.884100
  H 3.705500 1.267000 2.343000
  H 2.274900 0.234100 2.352300
  H 3.605500 1.466300 -0.151800
  C 4.983700 -5.366000 -0.386100
  C 4.463700 -4.125400 -1.133700
  H 4.528700 -5.412900 0.609800
  H 6.068800 -5.339800 -0.262100
  H 4.719800 -6.281200 -0.921000
  C 5.157300 -3.971900 -2.498800
  H 3.370600 -4.301100 -1.314600
  H 6.217900 -3.736400 -2.386500
  H 4.695200 -3.139700 -3.049200
  H 5.060700 -4.874900 -3.103700
