 45
 
  C -0.144300 -3.684400 -2.913500
  C 0.832200 -2.745900 -2.672400
  C -0.451500 -4.655400 -1.927800
  H -0.688000 -3.706000 -3.851000
  C 0.250500 -4.648600 -0.731300
  H -1.224900 -5.380700 -2.123800
  C 1.271600 -3.726500 -0.488100
  H 0.010600 -5.381200 0.037200
  C 1.636600 -2.738100 -1.446000
  H 1.816100 -3.754500 0.447400
  O 1.164100 -1.716400 -3.555700
  C 0.401100 -1.636200 -4.775500
  H 0.701900 -2.439300 -5.454200
  H 0.697600 -0.658900 -5.169200
  H -0.675100 -1.665700 -4.579600
  N 2.575000 -1.781600 -1.302000
  C 3.637400 -1.748700 -0.418500
  C 3.928700 -0.527400 0.284000
  C 4.596800 -2.819200 -0.327000
  C 5.135600 -0.420200 0.984100
  C 5.753100 -2.674300 0.437500
  C 6.043700 -1.474500 1.088300
  H 6.451800 -3.506300 0.516100
  H 6.958700 -1.361600 1.649900
  H 5.383300 0.520600 1.476600
  C 3.068100 0.731700 0.312900
  C 1.711900 0.672800 -0.390000
  H 1.830300 0.369200 -1.445000
  H 1.204800 1.637500 -0.366900
  H 1.057500 -0.086800 0.053900
  C 2.832400 1.193700 1.773400
  H 2.214500 2.093700 1.812500
  H 3.772100 1.408900 2.287700
  H 2.322300 0.406800 2.338000
  H 3.673700 1.524100 -0.204700
  C 4.257200 -5.303300 -0.159000
  C 4.446800 -4.109000 -1.109400
  H 3.415900 -5.096800 0.518100
  H 5.142300 -5.487900 0.451200
  H 4.015600 -6.215200 -0.709100
  C 5.648400 -4.306900 -2.055100
  H 3.539400 -4.060400 -1.765200
  H 6.589800 -4.437600 -1.515900
  H 5.751100 -3.423000 -2.697600
  H 5.499200 -5.172700 -2.702200
