 45
 
  C -0.246200 -4.086800 -0.019100
  C 0.891100 -3.310400 0.066400
  C -1.019800 -4.072300 -1.198800
  H -0.568500 -4.720000 0.800300
  C -0.622500 -3.257600 -2.256900
  H -1.901600 -4.687400 -1.272100
  C 0.521600 -2.473400 -2.186600
  H -1.212900 -3.239000 -3.169300
  C 1.361800 -2.460900 -1.026900
  H 0.821000 -1.850300 -3.021000
  O 1.716100 -3.256900 1.195600
  C 1.200500 -3.866200 2.394600
  H 0.213500 -3.470500 2.647300
  H 1.945200 -3.568600 3.139700
  H 1.165400 -4.952400 2.276400
  N 2.420500 -1.635700 -1.054700
  C 3.564700 -1.652500 -0.272600
  C 3.976900 -0.441700 0.377500
  C 4.472200 -2.767100 -0.271500
  C 5.210600 -0.394700 1.027500
  C 5.690600 -2.669500 0.398600
  C 6.068800 -1.496200 1.056800
  H 6.370200 -3.519800 0.404500
  H 7.013300 -1.438600 1.577300
  H 5.519000 0.522200 1.526900
  C 3.148100 0.831900 0.404500
  C 2.966300 1.423900 -1.001800
  H 3.928400 1.671400 -1.455200
  H 2.333300 2.311900 -0.982000
  H 2.483100 0.678600 -1.657900
  C 1.791400 0.619100 1.091000
  H 1.225100 1.549700 1.154100
  H 1.920100 0.200000 2.092600
  H 1.191000 -0.106500 0.519200
  H 3.706500 1.594800 1.010700
  C 4.197500 -5.280800 -0.133900
  C 4.165000 -4.038200 -1.039500
  H 3.494800 -5.138600 0.699600
  H 5.190400 -5.456500 0.283800
  H 3.895000 -6.170500 -0.692200
  C 5.132800 -4.205300 -2.226700
  H 3.131600 -3.982300 -1.471500
  H 6.168500 -4.301400 -1.895300
  H 5.072300 -3.327700 -2.881700
  H 4.874000 -5.090400 -2.812900
