25
159
S          0.94594        0.05570        0.06305
C          0.94594       -1.48092        1.01956
C          0.94594        1.01221        1.59966
C         -0.86406        0.05570        0.06305
C          0.94594        1.59231       -0.89346
C          0.94594       -0.90081       -1.47357
C          2.75594        0.05570        0.06305
H          0.13618       -1.49642        1.75996
H          1.85478       -1.61326        1.61735
H          0.82556       -2.38228        0.41040
H          0.06332        0.80650        2.21756
H          1.01033        2.09506        1.46022
H          1.76440        0.70816        2.26462
H         -1.30524       -0.90399        0.35201
H         -1.24850        0.26446       -0.94452
H         -1.30726        0.82784        0.70072
H          0.08976        2.22492       -0.62494
H          0.90117        1.48941       -1.98024
H          1.83347        2.20170       -0.68176
H          0.04421       -1.51987       -1.56163
H          1.76104       -1.63611       -1.47511
H          1.03881       -0.34249       -2.40660
H          3.20132        0.76583        0.76721
H          3.13818        0.34298       -0.92588
H          3.19908       -0.92645        0.25878
